
#======================================================================
# CRYSTAL DATA
#----------------------------------------------------------------------
data_VESTA_phase_1

_chemical_name_common                  '3D\Atomistic'
_cell_length_a                         10.000000
_cell_length_b                         10.000000
_cell_length_c                         10.000000
_cell_angle_alpha                      90.000000
_cell_angle_beta                       90.000000
_cell_angle_gamma                      90.000000
_cell_volume                           1000.000000
_space_group_name_H-M_alt              'P 1'
_space_group_IT_number                 1

loop_
_space_group_symop_operation_xyz
   'x, y, z'

loop_
   _atom_site_label
   _atom_site_occupancy
   _atom_site_fract_x
   _atom_site_fract_y
   _atom_site_fract_z
   _atom_site_adp_type
   _atom_site_U_iso_or_equiv
   _atom_site_type_symbol
   H1         1.0    -0.595960     0.422820    -0.564980    Uiso  ? H
   C2         1.0    -0.495220     0.476180    -0.564740    Uiso  ? C
   X          1.0    -0.367290     0.395950    -0.565120    Uiso  ? O
   O4         1.0    -0.489700     0.627080    -0.564040    Uiso  ? O
