
#======================================================================
# CRYSTAL DATA
#----------------------------------------------------------------------
data_VESTA_phase_1

_chemical_name_common                  'NO3'
_cell_length_a                         15.000000
_cell_length_b                         15.000000
_cell_length_c                         15.000000
_cell_angle_alpha                      90.000000
_cell_angle_beta                       90.000000
_cell_angle_gamma                      90.000000
_cell_volume                           3375.000000
_space_group_name_H-M_alt              'P 1'
_space_group_IT_number                 1

loop_
_space_group_symop_operation_xyz
   'x, y, z'

loop_
   _atom_site_label
   _atom_site_occupancy
   _atom_site_fract_x
   _atom_site_fract_y
   _atom_site_fract_z
   _atom_site_adp_type
   _atom_site_U_iso_or_equiv
   _atom_site_type_symbol
   X         1.0     0.417310     0.477849     0.376541    Uiso  ? O
   O2         1.0     0.351013     0.379216     0.450699    Uiso  ? O
   O3         1.0     0.476226     0.349391     0.386370    Uiso  ? O
   N1         1.0     0.414937     0.403184     0.406223    Uiso  ? N
